ModelCases/GERMANY_PCM_nodal_case/Data_GERMANY_PCM_nodal/linedata.csv
From_zone,To_zone,from_bus,to_bus,X,Capacity (MW),Loss (%)
Amprion,Amprion,B443,B473,1.5931890581717452e-05,1698.103,0.0
TransnetBW,TransnetBW,B504,B583,7.002768005540167e-05,1698.103,0.0
Amprion,Amprion,B494,B435,1.642123268698061e-05,1698.103,0.0
TransnetBW,TransnetBW,B381,B363,3.129615702479339e-05,491.556,0.0
Amprion,TransnetBW,B639,B680,8.301644736842106e-05,1698.103,0.0
TransnetBW,TransnetBW,B21,B22,9.6693326446281e-05,491.556,0.0
Amprion,Amprion,B494,B428,5.814063711911357e-05,1698.103,0.0
TransnetBW,TransnetBW,B322,B633,2.157200138504155e-05,1698.103,0.0
TransnetBW,TransnetBW,B633,B365,6.993843490304709e-06,1698.103,0.0
TransnetBW,TransnetBW,B583,B582,3.138155817174515e-05,1698.103,0.0
TransnetBW,TransnetBW,B653,B511,1.0762042936288088e-05,3396.205,0.0
50Hertz,50Hertz,B321,B291,5.62945867768595e-05,491.556,0.0
TransnetBW,TransnetBW,B37,B38,0.0006511504958677686,491.556,0.0
TransnetBW,TenneT,B410,B516,7.498001385041552e-05,1698.103,0.0
Amprion,Amprion,B195,B693,4.588718836565096e-06,3396.205,0.0
Amprion,Amprion,B147,B280,5.376382231404958e-05,491.556,0.0
Amprion,Amprion,B343,B281,1.1347908587257618e-05,1698.103,0.0
Amprion,Amprion,B47,B556,5.417580578512397e-05,983.112,0.0
Amprion,Amprion,B47,B147,2.1537045454545453e-05,983.112,0.0
Amprion,Amprion,B623,B195,1.61804432132964e-05,1698.103,0.0
Amprion,Amprion,B48,B474,8.0850826446281e-06,983.112,0.0
Amprion,Amprion,B49,B262,2.1974861495844876e-06,3396.205,0.0
Amprion,Amprion,B74,B101,1.340507617728532e-05,1698.103,0.0
TenneT,TenneT,B278,B767,3.303722991689751e-05,3396.205,0.0
Amprion,Amprion,B470,B137,6.861146694214876e-05,491.556,0.0
TransnetBW,TransnetBW,B722,B634,0.00012093601239669422,491.556,0.0
Amprion,Amprion,B493,B188,2.3504421487603304e-05,491.556,0.0
Amprion,Amprion,B454,B195,1.8407105263157896e-05,3396.205,0.0
50Hertz,50Hertz,B159,B672,0.0002471046487603306,491.556,0.0
50Hertz,50Hertz,B686,B72,6.499512465373961e-05,1698.103,0.0
Amprion,Amprion,B55,B229,1.8979111570247933e-05,491.556,0.0
Amprion,Amprion,B229,B213,2.6656838842975208e-05,491.556,0.0
TransnetBW,TransnetBW,B379,B378,3.438508310249308e-05,3396.205,0.0
Amprion,Amprion,B492,B247,7.057454545454546e-05,983.112,0.0
TransnetBW,TransnetBW,B287,B737,1.7793192520775625e-05,3396.205,0.0
Amprion,Amprion,B491,B60,1.698742382271468e-05,3396.205,0.0
Amprion,Amprion,B235,B61,4.298805785123967e-05,983.112,0.0
Amprion,Amprion,B62,B428,1.7451405817174515e-05,3396.205,0.0
Amprion,Amprion,B649,B176,0.0002613255165289256,491.556,0.0
Amprion,Amprion,B175,B64,2.246634349030471e-05,3396.205,0.0
Amprion,Amprion,B787,B267,1.315245867768595e-05,983.112,0.0
Amprion,Amprion,B788,B141,4.7093559556786705e-06,3396.205,0.0
Amprion,Amprion,B66,B384,8.1602216066482e-06,3396.205,0.0
Amprion,Amprion,B67,B619,0.00010505006198347108,491.556,0.0
Amprion,Amprion,B782,B620,3.1579993074792244e-05,1698.103,0.0
TenneT,TenneT,B668,B313,0.00017266103305785125,983.112,0.0
TenneT,TenneT,B119,B609,1.780193213296399e-05,3396.205,0.0
TenneT,TenneT,B551,B539,0.00013861475206611572,983.112,0.0
Amprion,Amprion,B146,B217,1.9296239612188363e-05,3396.205,0.0
TenneT,TenneT,B786,B181,4.905018698060942e-05,3396.205,0.0
Amprion,Amprion,B216,B175,1.0104217451523546e-05,3396.205,0.0
TransnetBW,TransnetBW,B219,B605,1.1883718836565096e-05,3396.205,0.0
Amprion,Amprion,B423,B86,0.00017814842975206612,983.112,0.0
Amprion,Amprion,B55,B213,4.589330578512397e-05,491.556,0.0
TransnetBW,TransnetBW,B106,B417,3.784590909090909e-05,983.112,0.0
TenneT,TenneT,B30,B71,6.585560941828255e-06,3396.205,0.0
TenneT,TenneT,B76,B554,4.380983379501385e-06,3396.205,0.0
Amprion,Amprion,B791,B775,3.0660872576177284e-06,3396.205,0.0
TenneT,TenneT,B299,B476,2.4382825484764543e-05,3396.205,0.0
50Hertz,50Hertz,B437,B88,5.487090720221606e-05,3396.205,0.0
TransnetBW,TransnetBW,B204,B653,1.5504570637119113e-05,3396.205,0.0
TransnetBW,TransnetBW,B225,B739,1.1522210743801654e-05,983.112,0.0
TransnetBW,TransnetBW,B739,B225,2.3309276859504133e-05,491.556,0.0
TenneT,50Hertz,B284,B391,3.64580540166205e-05,3396.205,0.0
TenneT,TenneT,B77,B143,2.6543351800554017e-06,3396.205,0.0
Amprion,Amprion,B86,B323,0.00016279413223140496,983.112,0.0
TransnetBW,TransnetBW,B702,B79,7.000304709141275e-06,1698.103,0.0
Amprion,Amprion,B190,B112,2.887597645429363e-05,3396.205,0.0
TransnetBW,TransnetBW,B679,B377,6.33807438016529e-05,983.112,0.0
TransnetBW,TransnetBW,B680,B378,1.6707583102493073e-05,3396.205,0.0
Amprion,Amprion,B266,B247,0.00010150907024793389,491.556,0.0
50Hertz,50Hertz,B391,B88,1.7977493074792245e-06,3396.205,0.0
TransnetBW,TransnetBW,B106,B90,0.00010175099173553719,491.556,0.0
TransnetBW,TransnetBW,B89,B330,1.5593285123966942e-05,491.556,0.0
Amprion,TransnetBW,B641,B268,0.0002259190702479339,983.112,0.0
TransnetBW,TransnetBW,B462,B108,0.0001509112603305785,983.112,0.0
TransnetBW,TransnetBW,B120,B330,0.0001587475826446281,491.556,0.0
TransnetBW,TransnetBW,B331,B269,5.4268843490304705e-05,1698.103,0.0
TenneT,TenneT,B273,B460,9.090000000000001e-06,3396.205,0.0
Amprion,TransnetBW,B113,B440,0.0001709048140495868,491.556,0.0
TransnetBW,TransnetBW,B22,B659,4.242619834710743e-05,491.556,0.0
Amprion,Amprion,B451,B641,1.920630165289256e-05,1474.668,0.0
TransnetBW,TransnetBW,B507,B220,4.431364265927978e-06,3396.205,0.0
50Hertz,TenneT,B88,B284,3.7085214681440446e-05,3396.205,0.0
Amprion,Amprion,B99,B648,2.7231301939058174e-06,3396.205,0.0
Amprion,Amprion,B376,B46,0.00012182826446280991,491.556,0.0
TransnetBW,TransnetBW,B105,B388,0.00028202913223140496,983.112,0.0
TransnetBW,TransnetBW,B689,B379,4.215523545706371e-05,3396.205,0.0
Amprion,Amprion,B401,B95,6.772211218836565e-05,1698.103,0.0
TransnetBW,TransnetBW,B197,B385,0.00012258311983471076,491.556,0.0
TransnetBW,TransnetBW,B513,B200,3.3613448753462604e-05,1698.103,0.0
TransnetBW,TransnetBW,B105,B104,2.8435950413223143e-05,983.112,0.0
TransnetBW,TransnetBW,B689,B370,1.4340443213296398e-05,3396.205,0.0
TransnetBW,TransnetBW,B417,B22,1.754159090909091e-05,491.556,0.0
TransnetBW,TransnetBW,B94,B418,2.3833102493074792e-06,3396.205,0.0
TransnetBW,TransnetBW,B106,B402,4.3041260330578516e-05,983.112,0.0
Amprion,Amprion,B47,B548,3.1143388429752064e-05,983.112,0.0
Amprion,Amprion,B614,B472,1.833642561983471e-05,983.112,0.0
TransnetBW,TransnetBW,B168,B517,6.745214681440443e-06,3396.205,0.0
50Hertz,50Hertz,B754,B749,5.2716973684210524e-05,3396.205,0.0
TenneT,Amprion,B533,B407,0.00014394861570247934,983.112,0.0
TenneT,TenneT,B534,B656,3.836331024930748e-05,3396.205,0.0
TenneT,TenneT,B313,B592,0.0001970723553719008,491.556,0.0
TenneT,TenneT,B314,B593,5.4007153739612187e-05,1698.103,0.0
Amprion,Amprion,B695,B241,1.4695706371191134e-05,1698.103,0.0
Amprion,Amprion,B174,B740,1.797051652892562e-05,983.112,0.0
Amprion,Amprion,B122,B626,0.00020731623966942147,491.556,0.0
Amprion,Amprion,B123,B627,5.679209833795014e-05,1698.103,0.0
TenneT,TenneT,B422,B445,2.6469605263157892e-05,3396.205,0.0
TransnetBW,TransnetBW,B133,B504,0.000108292216066482,1698.103,0.0
TransnetBW,TransnetBW,B653,B87,3.070462603878116e-05,3396.205,0.0
Amprion,Amprion,B389,B359,6.184635734072022e-05,3396.205,0.0
Amprion,Amprion,B19,B95,6.400017313019391e-05,1698.103,0.0
TransnetBW,TransnetBW,B463,B736,4.7253351800554017e-05,5094.308,0.0
TenneT,50Hertz,B655,B611,5.70563296398892e-05,3396.205,0.0
TenneT,TenneT,B650,B116,3.586756198347107e-05,491.556,0.0
TenneT,TenneT,B234,B198,4.549638504155124e-05,1698.103,0.0
Amprion,Amprion,B164,B347,2.2411652892561984e-05,983.112,0.0
TransnetBW,TransnetBW,B510,B206,9.212353305785124e-05,491.556,0.0
TransnetBW,TransnetBW,B633,B221,2.3516253462603878e-05,1698.103,0.0
Amprion,Amprion,B564,B67,3.6883471074380166e-05,983.112,0.0
Amprion,Amprion,B348,B207,1.150314049586777e-05,983.112,0.0
TransnetBW,TransnetBW,B120,B37,0.00022944938016528925,491.556,0.0
TransnetBW,TransnetBW,B616,B210,2.2781717451523545e-06,1698.103,0.0
Amprion,Amprion,B425,B191,2.7595351239669422e-05,491.556,0.0
Amprion,Amprion,B426,B129,7.533649584487534e-06,1698.103,0.0
Amprion,Amprion,B137,B468,3.2009545454545454e-05,491.556,0.0
Amprion,Amprion,B92,B263,3.696929752066116e-05,983.112,0.0
Amprion,Amprion,B97,B265,8.662541551246538e-06,3396.205,0.0
Amprion,Amprion,B632,B183,2.865096952908587e-06,3396.205,0.0
Amprion,Amprion,B81,B63,1.7346745152354572e-06,3396.205,0.0
Amprion,Amprion,B102,B383,6.088607438016529e-05,983.112,0.0
Amprion,Amprion,B103,B121,8.390704545454545e-05,491.556,0.0
50Hertz,50Hertz,B748,B530,0.0004222047314049587,491.556,0.0
50Hertz,50Hertz,B749,B531,0.00011575418975069254,1698.103,0.0
Amprion,Amprion,B694,B237,3.20148347107438e-05,491.556,0.0
Amprion,Amprion,B695,B238,2.036244459833795e-05,1698.103,0.0
TenneT,TenneT,B126,B172,0.001171975733610822,173.162,0.0
TransnetBW,TransnetBW,B517,B170,1.5348753462603877e-06,3396.205,0.0
Amprion,Amprion,B556,B218,2.733431818181818e-05,983.112,0.0
TransnetBW,TransnetBW,B510,B789,2.1642830578512394e-05,491.556,0.0
TransnetBW,TransnetBW,B511,B221,5.929432132963989e-06,1698.103,0.0
Amprion,Amprion,B434,B425,7.731762396694215e-05,491.556,0.0
Amprion,Amprion,B435,B426,2.1187126038781163e-05,1698.103,0.0
TenneT,TenneT,B786,B131,5.624831024930748e-05,3396.205,0.0
TransnetBW,TransnetBW,B89,B37,0.00013080869834710744,491.556,0.0
TransnetBW,TransnetBW,B331,B322,3.1579058171745155e-05,1698.103,0.0
50Hertz,50Hertz,B531,B161,8.10733379501385e-06,1698.103,0.0
TransnetBW,TransnetBW,B221,B132,1.073106648199446e-05,3396.205,0.0
50Hertz,50Hertz,B748,B432,0.00011963882231404959,983.112,0.0
TenneT,TenneT,B272,B177,9.308438016528926e-05,983.112,0.0
TransnetBW,TransnetBW,B587,B503,0.0006998873760330579,491.556,0.0
TransnetBW,TransnetBW,B588,B504,0.00019174079639889196,1698.103,0.0
Amprion,Amprion,B212,B776,1.0084256198347107e-05,491.556,0.0
TenneT,TenneT,B299,B70,3.040436288088643e-06,3396.205,0.0
Amprion,Amprion,B136,B424,6.283691135734072e-06,3396.205,0.0
Amprion,Amprion,B471,B139,4.157783933518006e-06,3396.205,0.0
Amprion,Amprion,B152,B687,7.182818559556786e-06,3396.205,0.0
TenneT,TenneT,B525,B719,7.80457756232687e-06,3396.205,0.0
TransnetBW,TransnetBW,B115,B511,8.892216066481995e-06,3396.205,0.0
Amprion,Amprion,B443,B788,2.4408518005540166e-05,1698.103,0.0
Amprion,Amprion,B494,B424,1.8783566481994457e-05,3396.205,0.0
Amprion,Amprion,B493,B59,9.02595041322314e-06,983.112,0.0
Amprion,Amprion,B493,B188,1.1785061983471075e-05,983.112,0.0
Amprion,Amprion,B649,B776,0.00017331735537190083,491.556,0.0
Amprion,Amprion,B147,B301,2.557059917355372e-05,983.112,0.0
Amprion,Amprion,B148,B302,7.022306094182826e-06,3396.205,0.0
Amprion,Amprion,B281,B557,1.7481759002770083e-05,3396.205,0.0
Amprion,Amprion,B429,B150,1.5889152892561984e-05,983.112,0.0
Amprion,Amprion,B320,B433,2.9682686980609417e-06,3396.205,0.0
TenneT,TenneT,B525,B279,4.9860145429362875e-05,3396.205,0.0
Amprion,Amprion,B342,B124,7.216369834710743e-05,983.112,0.0
Amprion,Amprion,B218,B156,8.892404958677687e-05,491.556,0.0
Amprion,Amprion,B433,B157,2.439246537396122e-05,1698.103,0.0
Amprion,Amprion,B237,B701,4.218702479338843e-05,491.556,0.0
TransnetBW,TransnetBW,B618,B517,6.425020775623268e-06,3396.205,0.0
TransnetBW,TransnetBW,B517,B519,1.0978850415512465e-05,3396.205,0.0
Amprion,Amprion,B725,B274,7.138371191135734e-05,3396.205,0.0
TransnetBW,TransnetBW,B162,B736,7.612763157894737e-06,1698.103,0.0
Amprion,Amprion,B490,B276,2.7688305785123967e-05,983.112,0.0
Amprion,Amprion,B163,B423,3.412586776859504e-05,983.112,0.0
Amprion,Amprion,B164,B163,2.359078512396694e-05,983.112,0.0
TransnetBW,TransnetBW,B682,B722,0.0004557074173553719,491.556,0.0
TransnetBW,TransnetBW,B699,B723,8.032855955678671e-05,1698.103,0.0
TransnetBW,TransnetBW,B160,B21,8.861446280991736e-05,983.112,0.0
TenneT,TenneT,B521,B563,7.726962809917356e-06,983.112,0.0
TransnetBW,TransnetBW,B441,B167,8.060304709141275e-06,3396.205,0.0
TenneT,TenneT,B134,B116,0.00011916402892561983,983.112,0.0
Amprion,Amprion,B490,B542,6.189611570247934e-05,983.112,0.0
Amprion,Amprion,B491,B60,1.6969764542936287e-05,3396.205,0.0
TransnetBW,TransnetBW,B702,B220,1.416713296398892e-05,3396.205,0.0
Amprion,Amprion,B429,B218,5.244380165289256e-06,1966.224,0.0
Amprion,Amprion,B86,B337,3.6055950413223145e-05,983.112,0.0
Amprion,Amprion,B3,B2,4.144930747922437e-06,3396.205,0.0
Amprion,Amprion,B281,B596,1.2593905817174514e-05,3396.205,0.0
Amprion,Amprion,B548,B239,5.078727272727273e-05,983.112,0.0
TenneT,TenneT,B313,B696,8.952460743801653e-05,983.112,0.0
TransnetBW,TransnetBW,B381,B595,6.25675826446281e-05,983.112,0.0
TransnetBW,TransnetBW,B169,B170,4.992520775623269e-06,3396.205,0.0
TenneT,TenneT,B646,B534,2.3949196675900274e-05,3396.205,0.0
TenneT,TenneT,B273,B452,1.1834238227146815e-05,3396.205,0.0
TenneT,TenneT,B173,B765,4.115780991735537e-05,983.112,0.0
Amprion,Amprion,B301,B694,2.5736962809917353e-05,983.112,0.0
Amprion,Amprion,B14,B565,3.8056578947368426e-06,1698.103,0.0
TransnetBW,TransnetBW,B718,B680,1.9962984764542937e-05,3396.205,0.0
TenneT,TenneT,B703,B570,5.6363285123966946e-05,983.112,0.0
TenneT,50Hertz,B13,B530,0.0006489415082644628,491.556,0.0
TenneT,50Hertz,B522,B161,0.00017000565789473683,1698.103,0.0
TenneT,TenneT,B316,B314,4.859915512465374e-05,3396.205,0.0
TransnetBW,TransnetBW,B133,B168,1.0133587257617729e-05,3396.205,0.0
Amprion,Amprion,B594,B235,9.060847107438016e-06,983.112,0.0
50Hertz,50Hertz,B756,B16,4.3349127423822715e-05,3396.205,0.0
Amprion,Amprion,B433,B152,1.093396814404432e-05,3396.205,0.0
Amprion,Amprion,B356,B357,2.5740826446280993e-05,983.112,0.0
Amprion,Amprion,B153,B358,9.137880886426593e-06,3396.205,0.0
TransnetBW,TransnetBW,B634,B171,0.0004717745867768595,491.556,0.0
TransnetBW,TransnetBW,B582,B635,0.00012919718836565096,1698.103,0.0
Amprion,Amprion,B560,B356,3.7774669421487604e-05,983.112,0.0
TenneT,TenneT,B714,B416,1.7050540166204986e-05,3396.205,0.0
50Hertz,50Hertz,B23,B390,0.00017793086776859502,983.112,0.0
TenneT,TenneT,B505,B422,1.434413434903047e-05,3396.205,0.0
TenneT,TenneT,B505,B223,1.043915512465374e-05,3396.205,0.0
TenneT,TenneT,B223,B189,4.572015235457064e-06,6792.41,0.0
Amprion,Amprion,B190,B309,2.624702216066482e-06,1698.103,0.0
Amprion,Amprion,B442,B137,5.7184772727272726e-05,491.556,0.0
Amprion,Amprion,B112,B384,1.5971433518005538e-05,3396.205,0.0
Amprion,Amprion,B112,B384,1.59747783933518e-05,3396.205,0.0
TenneT,TenneT,B543,B421,8.91840909090909e-06,983.112,0.0
Amprion,Amprion,B68,B424,1.1950214681440443e-05,1698.103,0.0
Amprion,Amprion,B424,B351,1.4399459833795014e-05,3396.205,0.0
Amprion,Amprion,B627,B401,1.7868746537396123e-05,1698.103,0.0
Amprion,Amprion,B626,B96,2.5841074380165288e-05,983.112,0.0
Amprion,Amprion,B627,B199,7.097818559556787e-06,3396.205,0.0
TenneT,TenneT,B198,B416,2.1247195290858726e-05,1698.103,0.0
Amprion,Amprion,B348,B542,7.096896694214876e-05,491.556,0.0
TenneT,Amprion,B608,B619,6.50279132231405e-05,983.112,0.0
Amprion,Amprion,B245,B713,1.5563351800554017e-05,3396.205,0.0
Amprion,Amprion,B231,B163,0.0001299151446280992,983.112,0.0
TransnetBW,TransnetBW,B385,B105,4.2808202479338845e-05,983.112,0.0
TransnetBW,TransnetBW,B200,B689,1.208255540166205e-05,3396.205,0.0
Amprion,Amprion,B176,B564,0.00017263369834710744,491.556,0.0
TransnetBW,TransnetBW,B595,B202,6.158146694214876e-05,983.112,0.0
50Hertz,50Hertz,B317,B432,2.8135847107438016e-05,983.112,0.0
Amprion,Amprion,B81,B494,7.579494459833795e-06,1698.103,0.0
Amprion,Amprion,B194,B60,1.3192603878116344e-05,1698.103,0.0
Amprion,Amprion,B625,B339,1.7051059556786704e-05,3396.205,0.0
Amprion,Amprion,B122,B427,0.00017971371900826446,491.556,0.0
Amprion,Amprion,B643,B428,3.756337950138504e-05,1698.103,0.0
Amprion,Amprion,B644,B215,2.3102853185595568e-05,3396.205,0.0
Amprion,Amprion,B146,B777,1.1086703601108032e-05,3396.205,0.0
Amprion,Amprion,B135,B777,6.832707756232687e-06,3396.205,0.0
Amprion,Amprion,B213,B212,5.595723140495868e-05,983.112,0.0
TenneT,TenneT,B40,B719,1.919095567867036e-05,3396.205,0.0
Amprion,Amprion,B215,B362,1.961689750692521e-06,3396.205,0.0
Amprion,Amprion,B151,B218,1.110444214876033e-05,983.112,0.0
Amprion,Amprion,B148,B343,5.059168975069252e-06,1698.103,0.0
50Hertz,50Hertz,B628,B288,0.0002778200413223141,983.112,0.0
TransnetBW,TransnetBW,B210,B647,3.0805630193905815e-05,3396.205,0.0
50Hertz,TenneT,B611,B422,5.859081024930748e-05,3396.205,0.0
Amprion,Amprion,B149,B244,2.5071329639889198e-06,3396.205,0.0
TenneT,TenneT,B726,B224,2.9975971074380165e-05,983.112,0.0
TenneT,TenneT,B182,B294,8.992541551246538e-06,3396.205,0.0
Amprion,Amprion,B472,B349,1.8821735537190083e-05,983.112,0.0
Amprion,Amprion,B384,B358,4.3930616343490305e-05,3396.205,0.0
TenneT,TenneT,B688,B224,3.836057851239669e-05,983.112,0.0
TransnetBW,TransnetBW,B665,B132,7.662202216066482e-06,1698.103,0.0
TransnetBW,TransnetBW,B576,B707,8.546523545706371e-05,1698.103,0.0
50Hertz,50Hertz,B186,B165,6.876252066115703e-05,983.112,0.0
TransnetBW,TransnetBW,B717,B225,1.9506177685950415e-05,983.112,0.0
TransnetBW,TransnetBW,B621,B581,2.2607811634349033e-05,3396.205,0.0
TransnetBW,TransnetBW,B106,B631,5.365719008264463e-05,983.112,0.0
TransnetBW,Amprion,B370,B412,4.925618421052632e-05,3396.205,0.0
TransnetBW,TransnetBW,B369,B307,5.923413223140495e-05,491.556,0.0
TenneT,TenneT,B226,B774,3.160902354570637e-05,3396.205,0.0
TenneT,TenneT,B779,B716,2.1210200831024928e-05,3396.205,0.0
TenneT,TenneT,B227,B780,1.8499584487534624e-06,3396.205,0.0
TransnetBW,TransnetBW,B683,B699,4.510861495844875e-05,1698.103,0.0
Amprion,Amprion,B493,B145,3.433309917355372e-05,983.112,0.0
Amprion,TenneT,B78,B691,0.0003086742561983471,491.556,0.0
TenneT,Amprion,B692,B775,3.90138296398892e-05,3396.205,0.0
Amprion,Amprion,B556,B78,0.00037448392561983474,491.556,0.0
Amprion,Amprion,B258,B124,4.428206611570248e-05,983.112,0.0
Amprion,Amprion,B252,B125,1.2113857340720221e-05,3396.205,0.0
Amprion,Amprion,B470,B156,4.1371301652892566e-05,983.112,0.0
Amprion,Amprion,B471,B157,1.1323469529085872e-05,3396.205,0.0
Amprion,Amprion,B301,B231,1.305431818181818e-05,983.112,0.0
Amprion,Amprion,B345,B136,9.026371191135734e-06,3396.205,0.0
Amprion,Amprion,B235,B427,2.069931818181818e-05,983.112,0.0
Amprion,Amprion,B687,B302,2.4321786703601107e-05,1698.103,0.0
Amprion,Amprion,B687,B518,8.927603878116343e-06,3396.205,0.0
TenneT,TenneT,B692,B234,6.599085872576177e-06,3396.205,0.0
TenneT,TenneT,B416,B234,6.680533933518005e-05,1698.103,0.0
Amprion,Amprion,B548,B236,2.297012396694215e-05,983.112,0.0
Amprion,Amprion,B701,B147,1.3865723140495867e-05,983.112,0.0
Amprion,Amprion,B238,B148,3.7776177285318558e-06,3396.205,0.0
Amprion,Amprion,B247,B746,9.09650826446281e-06,983.112,0.0
Amprion,Amprion,B502,B301,8.907454545454544e-05,491.556,0.0
Amprion,Amprion,B150,B117,1.862923553719008e-05,983.112,0.0
Amprion,Amprion,B150,B429,2.9835619834710747e-05,491.556,0.0
TenneT,TenneT,B778,B119,7.137804016620499e-05,1698.103,0.0
Amprion,Amprion,B501,B149,1.1561419667590028e-05,1698.103,0.0
Amprion,Amprion,B244,B500,4.353303324099723e-06,3396.205,0.0
Amprion,Amprion,B298,B644,4.104265927977839e-06,3396.205,0.0
Amprion,Amprion,B338,B339,2.4970173130193907e-05,3396.205,0.0
Amprion,Amprion,B166,B222,0.00021440404958677684,491.556,0.0
TenneT,TenneT,B603,B119,1.0687049861495845e-05,3396.205,0.0
50Hertz,50Hertz,B165,B530,7.776407024793388e-05,983.112,0.0
TransnetBW,TransnetBW,B211,B210,1.653150969529086e-05,3396.205,0.0
Amprion,Amprion,B121,B740,3.425855371900826e-05,983.112,0.0
Amprion,TenneT,B176,B691,0.00021573055785123967,491.556,0.0
Amprion,TenneT,B713,B692,1.599849030470914e-05,3396.205,0.0
TenneT,TenneT,B116,B313,8.086103305785124e-05,983.112,0.0
Amprion,Amprion,B145,B350,1.1795227272727273e-05,1966.224,0.0
Amprion,Amprion,B248,B142,1.1811883656509694e-05,3396.205,0.0
Amprion,Amprion,B442,B266,2.978948347107438e-05,491.556,0.0
Amprion,TransnetBW,B113,B440,0.00017008130165289257,491.556,0.0
Amprion,Amprion,B725,B255,1.7513760387811635e-05,3396.205,0.0
Amprion,Amprion,B253,B129,1.7336163434903047e-05,3396.205,0.0
Amprion,Amprion,B496,B117,1.7616239669421488e-05,983.112,0.0
Amprion,Amprion,B184,B240,1.92174173553719e-05,983.112,0.0
TenneT,TenneT,B710,B499,3.985995844875347e-05,1698.103,0.0
TenneT,TenneT,B498,B553,0.0007006915495867768,491.556,0.0
TenneT,TenneT,B554,B710,0.00015217842797783933,1698.103,0.0
Amprion,Amprion,B542,B493,3.36479132231405e-05,983.112,0.0
Amprion,Amprion,B60,B494,9.139750692520775e-06,3396.205,0.0
Amprion,Amprion,B205,B100,1.5466322714681442e-05,3396.205,0.0
Amprion,Amprion,B205,B512,3.7109806094182825e-05,3396.205,0.0
Amprion,Amprion,B230,B791,1.7210595567867036e-05,3396.205,0.0
Amprion,Amprion,B253,B528,9.132631578947368e-06,3396.205,0.0
Amprion,Amprion,B128,B423,1.3497293388429751e-05,491.556,0.0
Amprion,Amprion,B725,B253,1.3558808864265927e-05,3396.205,0.0
Amprion,Amprion,B231,B694,2.638904958677686e-05,491.556,0.0
TransnetBW,TransnetBW,B637,B211,2.765404432132964e-05,1698.103,0.0
TransnetBW,TransnetBW,B527,B647,2.893943905817175e-05,3396.205,0.0
TransnetBW,TransnetBW,B246,B167,1.6180214681440442e-05,3396.205,0.0
TenneT,TenneT,B732,B314,5.01707756232687e-06,3396.205,0.0
Amprion,Amprion,B374,B254,0.000216466632231405,491.556,0.0
Amprion,Amprion,B470,B258,2.099332644628099e-05,491.556,0.0
Amprion,Amprion,B471,B252,5.750235457063712e-06,1698.103,0.0
50Hertz,TenneT,B611,B741,3.546324099722992e-05,3396.205,0.0
TenneT,TenneT,B278,B690,3.892835872576177e-05,3396.205,0.0
Amprion,Amprion,B341,B249,8.82095567867036e-06,3396.205,0.0
Amprion,Amprion,B351,B353,9.600768698060943e-06,3396.205,0.0
TenneT,TenneT,B716,B226,8.87009002770083e-06,3396.205,0.0
TransnetBW,TransnetBW,B269,B660,3.618483379501385e-06,1698.103,0.0
TenneT,50Hertz,B13,B158,0.0001848730785123967,491.556,0.0
50Hertz,TenneT,B607,B522,6.360062326869806e-05,1698.103,0.0
TenneT,TenneT,B773,B615,3.9752804709141277e-05,3396.205,0.0
50Hertz,50Hertz,B233,B193,7.923512396694216e-06,491.556,0.0
50Hertz,50Hertz,B289,B753,5.9464536011080334e-05,1698.103,0.0
50Hertz,50Hertz,B289,B753,5.9464536011080334e-05,1698.103,0.0
50Hertz,50Hertz,B444,B289,7.924578254847646e-05,1698.103,0.0
50Hertz,50Hertz,B569,B289,0.00012106560941828256,1698.103,0.0
50Hertz,50Hertz,B439,B601,0.00017239121900826447,491.556,0.0
50Hertz,50Hertz,B602,B396,0.0001428432756232687,1698.103,0.0
Amprion,Amprion,B644,B648,0.00019472738227146815,1698.103,0.0
Amprion,Amprion,B644,B340,0.0001146166135734072,1698.103,0.0
Amprion,Amprion,B612,B596,4.159643351800554e-05,1698.103,0.0
Amprion,Amprion,B459,B154,2.0750013850415514e-05,1698.103,0.0
Amprion,Amprion,B506,B154,3.3144252077562328e-06,1698.103,0.0
Amprion,Amprion,B154,B725,2.4929030470914127e-05,1698.103,0.0
Amprion,Amprion,B154,B725,2.4929030470914127e-05,1698.103,0.0
Amprion,Amprion,B357,B383,0.00015792962809917354,983.112,0.0
Amprion,Amprion,B353,B384,0.000124881391966759,1698.103,0.0
Amprion,Amprion,B423,B541,3.126185950413223e-05,983.112,0.0
Amprion,Amprion,B427,B357,0.00010397355371900827,491.556,0.0
Amprion,Amprion,B541,B560,3.5202603305785124e-05,983.112,0.0
Amprion,Amprion,B427,B357,0.00010397355371900827,491.556,0.0
Amprion,Amprion,B725,B524,2.521218836565097e-06,5094.308,0.0
Amprion,Amprion,B434,B420,1.4525578512396695e-05,983.112,0.0
Amprion,Amprion,B494,B528,2.2457908587257618e-05,1698.103,0.0
Amprion,Amprion,B535,B2,3.602056786703601e-06,1698.103,0.0
Amprion,Amprion,B2,B3,8.32415512465374e-06,1698.103,0.0
Amprion,Amprion,B3,B596,4.040394736842105e-06,1698.103,0.0
Amprion,Amprion,B535,B2,3.602056786703601e-06,1698.103,0.0
Amprion,Amprion,B2,B3,8.32415512465374e-06,1698.103,0.0
Amprion,Amprion,B3,B596,4.040394736842105e-06,1698.103,0.0
Amprion,Amprion,B776,B466,0.00015534448347107437,491.556,0.0
Amprion,Amprion,B496,B371,2.1390206611570246e-05,491.556,0.0
Amprion,Amprion,B496,B371,2.1390206611570246e-05,491.556,0.0
50Hertz,50Hertz,B763,B629,0.00018312079639889198,1698.103,0.0
50Hertz,50Hertz,B629,B550,1.3464937673130193e-05,1698.103,0.0
Amprion,Amprion,B4,B496,5.282787190082644e-05,491.556,0.0
Amprion,Amprion,B4,B496,5.238047520661157e-05,491.556,0.0
TransnetBW,TenneT,B410,B516,7.502170360110803e-05,1698.103,0.0
TenneT,TenneT,B455,B515,1.7540247933884298e-05,983.112,0.0
Amprion,Amprion,B495,B466,1.0880723140495866e-05,491.556,0.0
50Hertz,50Hertz,B759,B5,4.719162049861496e-06,1698.103,0.0
50Hertz,50Hertz,B5,B6,4.886371191135734e-06,1698.103,0.0
50Hertz,50Hertz,B6,B406,0.00014720723684210526,1698.103,0.0
50Hertz,50Hertz,B759,B5,4.719162049861496e-06,1698.103,0.0
50Hertz,50Hertz,B5,B6,4.886371191135734e-06,1698.103,0.0
50Hertz,50Hertz,B6,B406,0.00014720723684210526,1698.103,0.0
TransnetBW,TransnetBW,B457,B409,0.00019211138429752064,491.556,0.0
TenneT,TenneT,B578,B315,9.464286703601108e-06,1698.103,0.0
TenneT,TenneT,B445,B286,4.8480193905817174e-05,1698.103,0.0
TenneT,TenneT,B545,B546,4.343484072022161e-05,1698.103,0.0
50Hertz,50Hertz,B566,B7,7.197832409972299e-06,1698.103,0.0
50Hertz,50Hertz,B566,B7,7.197832409972299e-06,1698.103,0.0
Amprion,Amprion,B470,B349,0.00011779055785123968,491.556,0.0
Amprion,Amprion,B470,B8,0.00012483626033057851,491.556,0.0
TenneT,50Hertz,B522,B607,6.343118421052632e-05,1698.103,0.0
50Hertz,50Hertz,B764,B657,0.0003509904338842975,491.556,0.0
50Hertz,50Hertz,B764,B657,0.0003509904338842975,491.556,0.0
TenneT,TenneT,B299,B445,5.0572250692520775e-05,1698.103,0.0
TenneT,TenneT,B299,B445,5.0572250692520775e-05,1698.103,0.0
Amprion,Amprion,B276,B743,3.062607438016529e-05,491.556,0.0
TenneT,TenneT,B697,B300,9.755976454293628e-06,1698.103,0.0
TenneT,TenneT,B295,B10,4.606346260387811e-05,1698.103,0.0
TenneT,TenneT,B295,B10,4.603463988919667e-05,1698.103,0.0
Amprion,Amprion,B349,B496,6.230035123966943e-05,491.556,0.0
Amprion,Amprion,B349,B496,6.230035123966943e-05,491.556,0.0
Amprion,Amprion,B744,B743,3.461586776859504e-05,491.556,0.0
TenneT,TenneT,B368,B483,9.655988919667591e-05,1698.103,0.0
50Hertz,TenneT,B390,B404,0.0002003844008264463,491.556,0.0
Amprion,Amprion,B612,B341,1.4315533240997229e-05,1698.103,0.0
Amprion,Amprion,B596,B341,2.7766634349030472e-05,1698.103,0.0
Amprion,Amprion,B341,B11,5.984986149584487e-06,1698.103,0.0
Amprion,Amprion,B11,B479,1.2670242382271467e-05,1698.103,0.0
Amprion,Amprion,B341,B11,5.984986149584487e-06,1698.103,0.0
Amprion,Amprion,B11,B479,1.2670242382271467e-05,1698.103,0.0
Amprion,TenneT,B559,B656,0.00011067696675900278,1698.103,0.0
TenneT,TenneT,B656,B774,8.178356648199446e-05,1698.103,0.0
Amprion,Amprion,B389,B559,6.956508310249307e-05,1698.103,0.0
Amprion,Amprion,B559,B367,8.632351108033241e-05,1698.103,0.0
Amprion,Amprion,B642,B367,0.00015201222299168976,1698.103,0.0
Amprion,TenneT,B559,B656,0.00011067696675900278,1698.103,0.0
TenneT,TenneT,B571,B655,2.741474376731302e-05,1698.103,0.0
TenneT,TenneT,B571,B655,2.741474376731302e-05,1698.103,0.0
TenneT,TenneT,B655,B741,4.591937673130194e-05,1698.103,0.0
TenneT,TenneT,B655,B741,4.591937673130194e-05,1698.103,0.0
TenneT,TenneT,B333,B285,5.0051800554016615e-06,1698.103,0.0
TenneT,TenneT,B333,B285,5.0051800554016615e-06,1698.103,0.0
Amprion,Amprion,B355,B512,5.449985457063712e-05,1698.103,0.0
Amprion,50Hertz,B559,B770,0.00022100301246537397,1698.103,0.0
50Hertz,50Hertz,B771,B770,0.00012367847645429364,1698.103,0.0
50Hertz,TenneT,B12,B13,0.00012753657024793387,491.556,0.0
Amprion,Amprion,B359,B454,8.62453324099723e-05,1698.103,0.0
50Hertz,50Hertz,B396,B277,0.0001205422645429363,1698.103,0.0
TenneT,TenneT,B539,B606,0.00046586442148760325,491.556,0.0
TenneT,TenneT,B523,B522,8.235896121883655e-05,1698.103,0.0
50Hertz,50Hertz,B756,B658,9.482010387811634e-05,1698.103,0.0
TenneT,TenneT,B368,B509,1.3806696675900278e-05,1698.103,0.0
TenneT,TenneT,B555,B578,2.4138206371191137e-05,1698.103,0.0
TenneT,TenneT,B555,B578,2.4138206371191137e-05,1698.103,0.0
TenneT,TenneT,B690,B555,3.86894944598338e-05,1698.103,0.0
TenneT,TenneT,B690,B555,3.86894944598338e-05,1698.103,0.0
50Hertz,50Hertz,B292,B537,5.094175900277008e-06,1698.103,0.0
50Hertz,50Hertz,B684,B573,1.639474376731302e-05,1698.103,0.0
50Hertz,50Hertz,B684,B573,1.639474376731302e-05,1698.103,0.0
TransnetBW,TransnetBW,B18,B513,4.6440526315789476e-05,1698.103,0.0
TransnetBW,TransnetBW,B329,B589,7.978263850415514e-05,1698.103,0.0
TenneT,Amprion,B547,B34,0.0002065762396694215,491.556,0.0
Amprion,Amprion,B782,B14,8.77700138504155e-06,3396.205,0.0
50Hertz,50Hertz,B657,B15,0.00017865256198347108,1474.668,0.0
50Hertz,50Hertz,B721,B16,9.883857340720222e-05,1698.103,0.0
50Hertz,50Hertz,B16,B289,7.233853185595568e-05,1698.103,0.0
TenneT,TenneT,B719,B593,4.6193060941828254e-05,1698.103,0.0
Amprion,Amprion,B623,B65,3.63047783933518e-06,1698.103,0.0
Amprion,Amprion,B65,B19,8.156634349030472e-06,1698.103,0.0
Amprion,Amprion,B19,B405,1.22453324099723e-05,1698.103,0.0
TransnetBW,TransnetBW,B370,B387,4.5749681440443216e-05,1698.103,0.0
TransnetBW,TransnetBW,B370,B387,4.5749681440443216e-05,1698.103,0.0
50Hertz,50Hertz,B629,B754,0.00011222817867036012,1698.103,0.0
50Hertz,50Hertz,B654,B602,3.442262465373961e-05,1698.103,0.0
Amprion,Amprion,B454,B642,3.360779085872576e-05,1698.103,0.0
TenneT,TenneT,B312,B314,0.0001017578324099723,1698.103,0.0
TenneT,TenneT,B312,B314,0.00010178239612188366,1698.103,0.0
TransnetBW,TransnetBW,B385,B1,3.823101239669421e-05,983.112,0.0
Amprion,Amprion,B614,B613,7.88944214876033e-06,983.112,0.0
Amprion,Amprion,B478,B352,0.00013786347107438017,491.556,0.0
Amprion,Amprion,B478,B352,0.00013786347107438017,491.556,0.0
TenneT,TenneT,B465,B98,2.8202423822714685e-06,1698.103,0.0
TransnetBW,TransnetBW,B386,B369,8.198642561983472e-05,491.556,0.0
TransnetBW,TransnetBW,B386,B369,8.198642561983472e-05,491.556,0.0
TransnetBW,TransnetBW,B387,B511,7.215076177285319e-05,3396.205,0.0
50Hertz,50Hertz,B17,B753,1.2449986149584488e-05,1698.103,0.0
50Hertz,50Hertz,B288,B360,0.00025838020661157025,491.556,0.0
50Hertz,50Hertz,B288,B764,0.0006640221074380165,491.556,0.0
TenneT,TenneT,B456,B477,7.769840027700832e-05,1698.103,0.0
TenneT,Amprion,B456,B355,2.550604570637119e-05,1698.103,0.0
TenneT,Amprion,B456,B355,2.550604570637119e-05,1698.103,0.0
TenneT,TenneT,B456,B477,7.769840027700832e-05,1698.103,0.0
Amprion,TenneT,B782,B609,0.00010523486149584488,1698.103,0.0
TransnetBW,TransnetBW,B18,B513,4.6440526315789476e-05,1698.103,0.0
TransnetBW,TransnetBW,B587,B586,0.0004397305991735537,491.556,0.0
Amprion,Amprion,B480,B19,2.0435069252077563e-05,1698.103,0.0
Amprion,Amprion,B19,B65,8.156634349030472e-06,1698.103,0.0
Amprion,Amprion,B65,B623,3.63047783933518e-06,1698.103,0.0
Amprion,Amprion,B480,B19,2.0435069252077563e-05,1698.103,0.0
Amprion,Amprion,B19,B405,1.22453324099723e-05,1698.103,0.0
Amprion,Amprion,B446,B20,1.0121632231404958e-05,983.112,0.0
Amprion,TransnetBW,B640,B441,3.458409279778393e-05,1698.103,0.0
Amprion,Amprion,B642,B640,7.141800554016621e-06,1698.103,0.0
TransnetBW,Amprion,B441,B642,3.920286011080332e-05,1698.103,0.0
Amprion,Amprion,B304,B645,1.0057195290858726e-05,1698.103,0.0
Amprion,Amprion,B466,B776,0.00015534448347107437,491.556,0.0
Amprion,Amprion,B542,B590,6.854882231404958e-05,491.556,0.0
Amprion,Amprion,B590,B666,2.0611838842975207e-05,491.556,0.0
Amprion,Amprion,B542,B666,4.83798347107438e-05,491.556,0.0
Amprion,TransnetBW,B336,B739,0.0003701218595041322,491.556,0.0
TenneT,TenneT,B455,B705,0.00015974940082644627,983.112,0.0
TenneT,TenneT,B711,B272,9.374214876033058e-05,491.556,0.0
50Hertz,50Hertz,B568,B406,5.673432825484764e-05,1698.103,0.0
50Hertz,50Hertz,B568,B406,5.673432825484764e-05,1698.103,0.0
50Hertz,50Hertz,B568,B306,5.336179362880886e-05,1698.103,0.0
50Hertz,50Hertz,B568,B306,5.336179362880886e-05,1698.103,0.0
50Hertz,50Hertz,B672,B288,0.00032504946280991734,491.556,0.0
50Hertz,TenneT,B597,B522,0.00019945029085872577,1698.103,0.0
Amprion,Amprion,B590,B666,2.052142561983471e-05,491.556,0.0
Amprion,Amprion,B590,B666,2.0611838842975207e-05,491.556,0.0
Amprion,Amprion,B340,B648,8.631513157894737e-05,1698.103,0.0
TransnetBW,TransnetBW,B457,B409,0.00019211138429752064,491.556,0.0
TenneT,TenneT,B311,B698,1.8821818181818183e-05,491.556,0.0
Amprion,Amprion,B334,B626,3.2124855371900825e-05,491.556,0.0
TenneT,50Hertz,B522,B607,6.343118421052632e-05,1698.103,0.0
50Hertz,50Hertz,B672,B288,0.00032504946280991734,491.556,0.0
50Hertz,50Hertz,B360,B764,0.00040610944214876035,491.556,0.0
50Hertz,50Hertz,B437,B396,0.00014156743074792243,1698.103,0.0
50Hertz,50Hertz,B437,B396,0.00014156743074792243,1698.103,0.0
50Hertz,50Hertz,B601,B23,6.496592975206611e-05,491.556,0.0
50Hertz,50Hertz,B23,B436,0.00025755051652892564,491.556,0.0
Amprion,Amprion,B309,B359,2.248915512465374e-05,1698.103,0.0
50Hertz,50Hertz,B630,B530,0.0003438045041322314,491.556,0.0
50Hertz,50Hertz,B630,B530,0.0003438045041322314,491.556,0.0
Amprion,TenneT,B781,B608,0.00038265774793388427,491.556,0.0
50Hertz,50Hertz,B318,B759,2.7712617728531855e-05,1698.103,0.0
50Hertz,50Hertz,B318,B759,2.7712617728531855e-05,1698.103,0.0
Amprion,50Hertz,B559,B771,9.914532548476455e-05,1698.103,0.0
Amprion,Amprion,B389,B559,6.956508310249307e-05,1698.103,0.0
TransnetBW,TransnetBW,B463,B382,0.00020588414819944597,1698.103,0.0
TransnetBW,TransnetBW,B382,B702,5.6093878116343494e-05,1698.103,0.0
TransnetBW,TransnetBW,B381,B598,8.574811983471075e-05,491.556,0.0
TransnetBW,TransnetBW,B598,B604,0.00013602363636363636,491.556,0.0
TransnetBW,TransnetBW,B381,B604,0.0001831454338842975,491.556,0.0
TenneT,TenneT,B719,B593,4.6193060941828254e-05,1698.103,0.0
TenneT,50Hertz,B286,B569,0.00014860902354570639,1698.103,0.0
TenneT,50Hertz,B286,B444,0.0001892707617728532,1698.103,0.0
50Hertz,50Hertz,B757,B399,7.838987534626039e-05,1698.103,0.0
50Hertz,50Hertz,B757,B399,7.838987534626039e-05,1698.103,0.0
50Hertz,50Hertz,B399,B24,9.932451523545706e-06,1698.103,0.0
50Hertz,50Hertz,B399,B24,9.932451523545706e-06,1698.103,0.0
50Hertz,50Hertz,B399,B24,1.1114328254847644e-05,1698.103,0.0
50Hertz,50Hertz,B399,B24,1.1114328254847644e-05,1698.103,0.0
TenneT,50Hertz,B522,B761,8.028346260387811e-05,1698.103,0.0
50Hertz,50Hertz,B761,B629,0.00019915234764542936,1698.103,0.0
50Hertz,50Hertz,B761,B754,0.00030450300554016617,1698.103,0.0
TenneT,50Hertz,B522,B761,8.028346260387811e-05,1698.103,0.0
TenneT,TenneT,B368,B284,8.591889196675901e-05,1698.103,0.0
TenneT,TenneT,B368,B284,8.591889196675901e-05,1698.103,0.0
Amprion,Amprion,B467,B25,1.3958636363636364e-05,491.556,0.0
TenneT,TenneT,B765,B461,6.6845e-05,491.556,0.0
TenneT,TenneT,B765,B461,6.6845e-05,491.556,0.0
TenneT,TenneT,B539,B448,0.00026483528925619836,491.556,0.0
TenneT,TenneT,B540,B465,0.00012381790166204984,1698.103,0.0
50Hertz,50Hertz,B629,B754,0.00010550065789473683,1698.103,0.0
50Hertz,50Hertz,B396,B754,0.000151550567867036,1698.103,0.0
50Hertz,50Hertz,B396,B754,0.000151550567867036,1698.103,0.0
TenneT,TenneT,B766,B458,6.177520083102493e-05,1698.103,0.0
TenneT,TenneT,B460,B766,1.580902354570637e-05,1698.103,0.0
TenneT,50Hertz,B368,B770,9.575675900277008e-05,1698.103,0.0
TenneT,TenneT,B766,B546,0.00014634696675900276,1698.103,0.0
TenneT,TenneT,B766,B546,0.00014634696675900276,1698.103,0.0
TenneT,TenneT,B545,B546,4.343484072022161e-05,1698.103,0.0
Amprion,Amprion,B389,B393,2.5047181440443215e-05,3396.205,0.0
Amprion,Amprion,B642,B367,0.00015201222299168976,1698.103,0.0
Amprion,Amprion,B559,B367,8.632351108033241e-05,1698.103,0.0
TransnetBW,TenneT,B335,B285,0.00015681959833795014,1698.103,0.0
TransnetBW,TransnetBW,B329,B638,9.418858033240996e-05,1698.103,0.0
TransnetBW,TenneT,B589,B285,9.222957063711911e-05,1698.103,0.0
TransnetBW,TransnetBW,B653,B26,4.4687603878116345e-06,3396.205,0.0
TransnetBW,TransnetBW,B26,B27,8.898407202216066e-07,3396.205,0.0
TransnetBW,TransnetBW,B27,B322,2.0053351800554016e-05,3396.205,0.0
50Hertz,50Hertz,B654,B602,3.442262465373961e-05,1698.103,0.0
50Hertz,50Hertz,B602,B396,0.0001428432756232687,1698.103,0.0
50Hertz,50Hertz,B770,B654,0.00017779873268698062,1698.103,0.0
TransnetBW,TransnetBW,B706,B410,4.2945353185595566e-05,3396.205,0.0
TransnetBW,TransnetBW,B576,B677,5.9722022160664825e-05,1698.103,0.0
TransnetBW,TransnetBW,B576,B706,8.876560941828256e-05,1698.103,0.0
TransnetBW,TransnetBW,B706,B677,5.371472991689751e-05,1698.103,0.0
50Hertz,50Hertz,B408,B436,0.00018776181818181816,491.556,0.0
50Hertz,50Hertz,B757,B685,9.65147783933518e-05,1698.103,0.0
50Hertz,50Hertz,B437,B760,0.00014559529085872577,1698.103,0.0
50Hertz,50Hertz,B290,B760,8.141909972299169e-05,1698.103,0.0
50Hertz,50Hertz,B437,B290,6.422385041551246e-05,1698.103,0.0
TenneT,TenneT,B482,B328,8.52979432132964e-05,3396.205,0.0
TenneT,TenneT,B483,B284,9.548452216066481e-05,1698.103,0.0
TenneT,TenneT,B285,B486,6.060089335180056e-05,1698.103,0.0
TenneT,TenneT,B285,B485,8.471432825484765e-05,1698.103,0.0
TenneT,TenneT,B486,B483,9.892622576177286e-05,1698.103,0.0
TenneT,TenneT,B485,B483,7.40248268698061e-05,1698.103,0.0
TenneT,TenneT,B483,B30,6.323213296398892e-05,1698.103,0.0
TenneT,TenneT,B30,B747,2.2494383656509694e-05,1698.103,0.0
TenneT,TenneT,B747,B558,0.00015019122576177284,1698.103,0.0
TenneT,TenneT,B709,B499,5.381416897506925e-05,3396.205,0.0
50Hertz,50Hertz,B757,B685,9.65147783933518e-05,1698.103,0.0
50Hertz,50Hertz,B760,B757,6.230839335180055e-05,1698.103,0.0
50Hertz,50Hertz,B439,B601,0.00017239121900826447,491.556,0.0
50Hertz,50Hertz,B395,B601,0.0009859705785123967,491.556,0.0
50Hertz,50Hertz,B395,B601,0.0009859705785123967,491.556,0.0
TenneT,TenneT,B368,B509,1.3806696675900278e-05,1698.103,0.0
50Hertz,50Hertz,B752,B31,0.0001756312,167.576,0.0
50Hertz,50Hertz,B436,B282,0.0001108231611570248,491.556,0.0
50Hertz,TenneT,B390,B404,0.0002003844008264463,491.556,0.0
50Hertz,50Hertz,B769,B395,0.0004113732231404959,491.556,0.0
50Hertz,50Hertz,B769,B395,0.0004113732231404959,491.556,0.0
50Hertz,50Hertz,B770,B566,0.00013254146121883658,1698.103,0.0
50Hertz,50Hertz,B770,B566,0.00013254146121883658,1698.103,0.0
50Hertz,50Hertz,B574,B580,5.5781855955678676e-06,3396.205,0.0
50Hertz,50Hertz,B580,B318,3.114826869806094e-06,5094.308,0.0
50Hertz,50Hertz,B572,B651,6.408130193905817e-06,3396.205,0.0
TenneT,TenneT,B708,B487,0.00014202760330578513,983.112,0.0
TenneT,TenneT,B326,B487,0.0002279529958677686,983.112,0.0
TenneT,TenneT,B326,B553,0.00039046049586776864,491.556,0.0
TenneT,TenneT,B489,B487,0.00015115095041322313,491.556,0.0
TenneT,TenneT,B325,B455,0.0002028580165289256,491.556,0.0
TenneT,TenneT,B327,B325,0.0002486138016528926,491.556,0.0
TenneT,TenneT,B328,B516,0.00012977707756232687,1698.103,0.0
TransnetBW,TenneT,B678,B516,3.0685706371191135e-05,1698.103,0.0
TransnetBW,TenneT,B678,B516,3.0685706371191135e-05,1698.103,0.0
TenneT,TenneT,B516,B709,3.479801939058172e-05,5094.308,0.0
TransnetBW,TransnetBW,B462,B587,0.0002287434917355372,983.112,0.0
Amprion,Amprion,B495,B466,1.0880723140495866e-05,491.556,0.0
TransnetBW,TransnetBW,B410,B453,2.89785595567867e-05,1698.103,0.0
TransnetBW,TransnetBW,B736,B415,1.1736094182825485e-05,1698.103,0.0
TransnetBW,TransnetBW,B736,B415,1.1736094182825485e-05,1698.103,0.0
Amprion,Amprion,B738,B374,6.38954958677686e-05,983.112,0.0
TenneT,TenneT,B483,B284,9.548452216066481e-05,1698.103,0.0
TenneT,TenneT,B553,B561,0.00022252849173553718,491.556,0.0
Amprion,Amprion,B297,B649,2.205210743801653e-05,491.556,0.0
TransnetBW,TransnetBW,B598,B599,1.6042561983471074e-05,491.556,0.0
TenneT,TenneT,B477,B413,9.134660664819944e-06,1698.103,0.0
TransnetBW,TransnetBW,B618,B665,2.244414127423823e-05,1698.103,0.0
TenneT,TenneT,B450,B272,0.00016559644628099174,491.556,0.0
TenneT,TenneT,B332,B32,3.604169421487603e-05,491.556,0.0
TenneT,TenneT,B332,B481,0.0005668202479338844,491.556,0.0
Amprion,TransnetBW,B642,B681,5.0889037396121885e-05,1698.103,0.0
Amprion,TenneT,B642,B333,0.00019319844875346261,1698.103,0.0
TransnetBW,TenneT,B681,B333,0.000143318324099723,1698.103,0.0
TenneT,TenneT,B333,B285,4.999951523545706e-06,1698.103,0.0
TenneT,TenneT,B333,B285,4.999487534626039e-06,1698.103,0.0
Amprion,Amprion,B355,B512,5.449985457063712e-05,1698.103,0.0
TenneT,TenneT,B547,B438,6.820163223140496e-05,491.556,0.0
TenneT,TenneT,B549,B483,0.00013795920360110803,1698.103,0.0
TenneT,TenneT,B285,B482,0.00015021122576177286,1698.103,0.0
TenneT,TenneT,B285,B482,0.00015021122576177286,1698.103,0.0
TenneT,TenneT,B482,B484,0.0001383336218836565,1698.103,0.0
TenneT,TenneT,B482,B549,4.645841412742382e-05,1698.103,0.0
TenneT,TenneT,B458,B523,4.455257617728532e-05,1698.103,0.0
TenneT,TenneT,B33,B523,9.233261772853185e-06,1698.103,0.0
TenneT,TenneT,B523,B522,8.235896121883655e-05,1698.103,0.0
Amprion,Amprion,B359,B454,8.62453324099723e-05,1698.103,0.0
Amprion,Amprion,B454,B642,3.360779085872576e-05,1698.103,0.0
TenneT,50Hertz,B675,B611,4.3231731301939056e-05,3396.205,0.0
50Hertz,50Hertz,B754,B755,7.393713988919667e-05,1698.103,0.0
50Hertz,50Hertz,B754,B755,7.393713988919667e-05,1698.103,0.0
50Hertz,50Hertz,B396,B399,0.00016001970914127425,1698.103,0.0
50Hertz,50Hertz,B396,B399,0.00016001970914127425,1698.103,0.0
50Hertz,50Hertz,B277,B755,8.621058171745151e-05,1698.103,0.0
50Hertz,50Hertz,B396,B755,0.0002070230055401662,1698.103,0.0
Amprion,TenneT,B354,B547,0.00021341708677685952,491.556,0.0
TenneT,Amprion,B547,B34,0.0002065762396694215,491.556,0.0
50Hertz,50Hertz,B610,B538,0.0001541970041322314,491.556,0.0
50Hertz,50Hertz,B538,B529,0.00012052438016528925,491.556,0.0
TenneT,TenneT,B577,B688,0.00011470524793388429,491.556,0.0
TransnetBW,TransnetBW,B43,B736,1.1376288088642659e-05,1698.103,0.0
TransnetBW,TransnetBW,B275,B586,7.663235537190083e-05,491.556,0.0
TransnetBW,TransnetBW,B587,B275,0.0004867848553719008,491.556,0.0
Amprion,Amprion,B35,B36,4.045832644628099e-05,491.556,0.0
TenneT,50Hertz,B543,B321,0.000302863347107438,491.556,0.0
TenneT,TenneT,B481,B326,0.0001192560743801653,983.112,0.0
TenneT,TenneT,B606,B272,9.333667355371901e-05,491.556,0.0
TenneT,TenneT,B562,B39,0.00048637311134235175,173.162,0.0
TransnetBW,TransnetBW,B385,B1,3.823101239669421e-05,983.112,0.0
TransnetBW,TransnetBW,B331,B335,7.737792243767314e-05,1698.103,0.0
Amprion,Amprion,B339,B355,4.519994459833795e-05,1698.103,0.0
TenneT,TenneT,B544,B373,7.233119834710744e-06,983.112,0.0
TenneT,TenneT,B361,B40,1.385029085872576e-05,1698.103,0.0
TenneT,TenneT,B40,B475,1.1812721606648199e-05,1698.103,0.0
50Hertz,50Hertz,B436,B282,0.0001108231611570248,491.556,0.0
50Hertz,50Hertz,B408,B436,0.00018776181818181816,491.556,0.0
TransnetBW,TransnetBW,B463,B382,0.00020588414819944597,1698.103,0.0
TenneT,TenneT,B458,B523,4.455257617728532e-05,1698.103,0.0
TransnetBW,TenneT,B409,B455,0.0002451493801652893,491.556,0.0
TenneT,TenneT,B445,B286,4.8480193905817174e-05,1698.103,0.0
TransnetBW,TransnetBW,B382,B702,5.6093878116343494e-05,1698.103,0.0
TransnetBW,TransnetBW,B410,B453,2.89785595567867e-05,1698.103,0.0
TenneT,50Hertz,B543,B321,0.000302863347107438,491.556,0.0
TenneT,TenneT,B578,B315,9.464286703601108e-06,1698.103,0.0
TenneT,TenneT,B368,B483,9.655988919667591e-05,1698.103,0.0
TenneT,TenneT,B786,B41,4.1896440443213293e-05,1698.103,0.0
TenneT,TenneT,B41,B42,6.5609418282548475e-06,1698.103,0.0
TenneT,TenneT,B42,B476,4.302129501385041e-05,1698.103,0.0
TenneT,TenneT,B786,B41,4.1896440443213293e-05,1698.103,0.0
TenneT,TenneT,B41,B42,6.5609418282548475e-06,1698.103,0.0
TenneT,TenneT,B42,B476,4.302129501385041e-05,1698.103,0.0
50Hertz,50Hertz,B770,B654,0.00017779873268698062,1698.103,0.0
50Hertz,50Hertz,B755,B56,1.1711849030470915e-05,1698.103,0.0
50Hertz,50Hertz,B755,B56,1.138817867036011e-05,1698.103,0.0
50Hertz,50Hertz,B755,B56,1.1218005540166204e-05,1698.103,0.0
50Hertz,50Hertz,B755,B56,1.138817867036011e-05,1698.103,0.0
50Hertz,50Hertz,B755,B56,1.1218005540166204e-05,1698.103,0.0
50Hertz,50Hertz,B755,B56,1.1711849030470915e-05,1698.103,0.0
TransnetBW,TransnetBW,B734,B736,1.654222299168975e-05,1698.103,0.0
TransnetBW,TransnetBW,B734,B43,5.061142659279778e-06,1698.103,0.0
TransnetBW,TransnetBW,B43,B736,1.1400041551246538e-05,1698.103,0.0
TenneT,TenneT,B484,B483,3.6612347645429365e-05,1698.103,0.0
TenneT,TenneT,B545,B286,4.788074792243767e-05,1698.103,0.0
TenneT,TenneT,B539,B448,0.00026483528925619836,491.556,0.0
TenneT,TenneT,B540,B465,0.00012381790166204984,1698.103,0.0
TenneT,TenneT,B545,B286,4.788074792243767e-05,1698.103,0.0
TenneT,TenneT,B315,B675,1.6657950138504156e-05,1698.103,0.0
TenneT,TenneT,B315,B675,1.6657950138504156e-05,1698.103,0.0
TransnetBW,TenneT,B409,B455,0.0002451493801652893,491.556,0.0
TenneT,TenneT,B481,B489,0.00028891911157024794,983.112,0.0
TenneT,TenneT,B766,B458,6.177520083102493e-05,1698.103,0.0
TenneT,50Hertz,B368,B770,9.575675900277008e-05,1698.103,0.0
50Hertz,50Hertz,B760,B757,6.230839335180055e-05,1698.103,0.0
TenneT,TenneT,B547,B438,6.820163223140496e-05,491.556,0.0
50Hertz,50Hertz,B671,B658,8.876293628808865e-05,1698.103,0.0
TenneT,TenneT,B314,B732,1.0156648199445984e-05,1698.103,0.0
50Hertz,50Hertz,B566,B763,8.709459833795014e-05,1698.103,0.0
50Hertz,50Hertz,B550,B754,9.210216066481994e-05,1698.103,0.0
50Hertz,TenneT,B597,B522,0.00019945029085872577,1698.103,0.0
50Hertz,50Hertz,B597,B566,6.648962603878115e-05,1698.103,0.0
50Hertz,50Hertz,B597,B566,6.648962603878115e-05,1698.103,0.0
50Hertz,50Hertz,B566,B629,0.0001743160249307479,1698.103,0.0
50Hertz,50Hertz,B756,B658,9.482010387811634e-05,1698.103,0.0
50Hertz,50Hertz,B573,B399,3.7303227146814404e-05,1698.103,0.0
50Hertz,50Hertz,B573,B399,3.7303227146814404e-05,1698.103,0.0
50Hertz,50Hertz,B755,B573,0.0001058064404432133,1698.103,0.0
50Hertz,50Hertz,B755,B573,0.0001058064404432133,1698.103,0.0
TenneT,TenneT,B449,B397,1.2760785123966942e-05,491.556,0.0
50Hertz,50Hertz,B529,B45,7.343964876033059e-05,491.556,0.0
50Hertz,50Hertz,B610,B529,0.00019782727272727273,491.556,0.0
TenneT,TenneT,B692,B609,0.00012644037396121883,1698.103,0.0
TenneT,Amprion,B692,B782,0.00010265786011080333,1698.103,0.0
TenneT,TenneT,B772,B773,2.660837950138504e-06,3396.205,0.0
TenneT,TenneT,B449,B696,1.486448347107438e-05,983.112,0.0
TransnetBW,TransnetBW,B735,B414,4.494132231404958e-06,1966.224,0.0
TransnetBW,TransnetBW,B736,B162,2.952423822714681e-06,3396.205,0.0
Amprion,Amprion,B50,B52,7.74956611570248e-06,491.556,0.0
Amprion,Amprion,B51,B53,2.1228047091412744e-06,1698.103,0.0
Amprion,Amprion,B138,B50,7.133739669421488e-06,983.112,0.0
Amprion,Amprion,B139,B51,1.9881163434903048e-06,3396.205,0.0
Amprion,Amprion,B52,B474,9.852561983471074e-06,983.112,0.0
Amprion,Amprion,B53,B262,2.7062049861495844e-06,3396.205,0.0
Amprion,Amprion,B472,B48,2.2860454545454547e-05,491.556,0.0
Amprion,Amprion,B473,B49,6.240304709141274e-06,1698.103,0.0
TransnetBW,TransnetBW,B520,B635,2.076702216066482e-05,3396.205,0.0
TransnetBW,TransnetBW,B635,B54,1.2886675900277008e-05,3396.205,0.0
TransnetBW,TransnetBW,B723,B54,1.2643351800554017e-06,3396.205,0.0
TransnetBW,TransnetBW,B54,B270,7.652146814404432e-06,1698.103,0.0
TransnetBW,TransnetBW,B54,B723,2.6017728531855954e-06,1698.103,0.0
Amprion,Amprion,B2,B304,5.205623268698061e-06,1698.103,0.0
TransnetBW,TransnetBW,B57,B287,2.1196814404432136e-06,3396.205,0.0
TransnetBW,TransnetBW,B58,B431,1.8611980609418284e-06,3396.205,0.0
TransnetBW,TransnetBW,B221,B58,1.236137811634349e-05,1698.103,0.0
Amprion,Amprion,B508,B175,3.919286703601108e-06,3396.205,0.0
Amprion,Amprion,B434,B61,2.2563429752066118e-05,491.556,0.0
Amprion,Amprion,B435,B62,6.182146814404432e-06,1698.103,0.0
Amprion,Amprion,B494,B60,9.167299168975069e-06,3396.205,0.0
Amprion,Amprion,B65,B447,2.14590027700831e-06,5094.308,0.0
TenneT,TenneT,B134,B785,9.143530991735536e-05,983.112,0.0
Amprion,Amprion,B694,B184,3.88107438016529e-06,1966.224,0.0
Amprion,Amprion,B781,B67,3.062644628099174e-06,1474.668,0.0
TenneT,TenneT,B69,B767,1.2264674515235456e-05,3396.205,0.0
TenneT,TenneT,B742,B261,7.489921487603307e-05,983.112,0.0
Amprion,Amprion,B350,B128,4.287128099173553e-06,1966.224,0.0
Amprion,Amprion,B146,B338,1.171404432132964e-05,3396.205,0.0
TenneT,TenneT,B42,B41,2.268448753462604e-06,3396.205,0.0
50Hertz,50Hertz,B657,B256,0.0004890843181818182,491.556,0.0
Amprion,Amprion,B304,B214,7.3133864265927975e-06,1698.103,0.0
50Hertz,50Hertz,B758,B192,1.6441570247933886e-05,491.556,0.0
Amprion,Amprion,B212,B776,5.011487603305785e-06,983.112,0.0
TenneT,TenneT,B71,B747,5.0039265927977835e-06,3396.205,0.0
TenneT,TenneT,B558,B73,2.9593317174515235e-05,3396.205,0.0
50Hertz,TenneT,B201,B284,4.410586565096953e-05,3396.205,0.0
Amprion,Amprion,B412,B617,1.3056350415512465e-05,3396.205,0.0
Amprion,Amprion,B263,B376,3.2942623966942145e-05,983.112,0.0
Amprion,Amprion,B265,B74,9.032790858725761e-06,3396.205,0.0
TenneT,TenneT,B570,B606,0.00015030223140495867,983.112,0.0
TenneT,TenneT,B75,B243,1.768809917355372e-05,491.556,0.0
TenneT,TenneT,B243,B75,1.7720619834710745e-05,491.556,0.0
Amprion,Amprion,B86,B478,2.9953388429752063e-05,983.112,0.0
TenneT,TenneT,B73,B76,4.828905817174515e-06,1698.103,0.0
TenneT,TenneT,B131,B77,4.406108033240997e-06,1698.103,0.0
TenneT,TenneT,B77,B131,4.543282548476454e-06,1698.103,0.0
TenneT,TenneT,B319,B80,8.645041551246536e-06,3396.205,0.0
Amprion,Amprion,B194,B81,2.8694667590027702e-06,3396.205,0.0
TransnetBW,TransnetBW,B377,B388,3.7007210743801655e-05,983.112,0.0
TenneT,TenneT,B324,B790,5.507892561983471e-06,983.112,0.0
TenneT,TransnetBW,B481,B268,0.0006919718181818182,491.556,0.0
50Hertz,50Hertz,B83,B770,1.4375214681440445e-05,3396.205,0.0
50Hertz,50Hertz,B84,B83,7.895997229916897e-06,3396.205,0.0
50Hertz,50Hertz,B85,B84,9.03337950138504e-06,3396.205,0.0
TransnetBW,TransnetBW,B293,B322,1.1456156509695291e-05,1698.103,0.0
TransnetBW,TransnetBW,B87,B527,1.650571329639889e-05,1698.103,0.0
TransnetBW,TransnetBW,B400,B89,3.9773347107438014e-05,491.556,0.0
TransnetBW,TransnetBW,B392,B90,2.490780991735537e-05,491.556,0.0
TransnetBW,TransnetBW,B417,B392,1.0051756198347107e-05,983.112,0.0
TenneT,Amprion,B91,B407,8.343760330578511e-06,983.112,0.0
TenneT,TenneT,B93,B747,5.655993074792244e-05,1698.103,0.0
TransnetBW,TransnetBW,B94,B269,7.903157894736842e-06,1698.103,0.0
Amprion,Amprion,B95,B670,1.0626765927977839e-05,3396.205,0.0
50Hertz,50Hertz,B201,B366,6.139951523545706e-06,1698.103,0.0
TenneT,TenneT,B465,B646,2.4623213296398892e-05,3396.205,0.0
Amprion,Amprion,B375,B97,8.95174515235457e-06,1698.103,0.0
TenneT,TenneT,B98,B452,4.504524930747922e-05,3396.205,0.0
TenneT,TenneT,B465,B98,1.630207756232687e-06,3396.205,0.0
Amprion,Amprion,B101,B639,9.941481994459834e-06,3396.205,0.0
Amprion,Amprion,B346,B164,9.034173553719007e-06,983.112,0.0
Amprion,Amprion,B102,B103,7.658966942148761e-06,983.112,0.0
TransnetBW,TransnetBW,B104,B386,8.550000000000001e-06,1966.224,0.0
TransnetBW,TransnetBW,B104,B369,2.3918305785123964e-05,983.112,0.0
TransnetBW,TransnetBW,B402,B107,4.05948347107438e-05,491.556,0.0
TransnetBW,TransnetBW,B202,B108,8.51701652892562e-05,983.112,0.0
Amprion,Amprion,B310,B109,7.789598337950139e-06,1698.103,0.0
50Hertz,50Hertz,B755,B110,3.289164819944598e-05,3396.205,0.0
50Hertz,50Hertz,B110,B676,6.442880886426592e-06,3396.205,0.0
50Hertz,50Hertz,B228,B403,1.477191135734072e-05,3396.205,0.0
50Hertz,50Hertz,B228,B762,3.899362880886427e-06,3396.205,0.0
50Hertz,50Hertz,B704,B654,2.968427977839335e-06,3396.205,0.0
Amprion,Amprion,B111,B174,2.4879896694214872e-05,983.112,0.0
Amprion,Amprion,B666,B347,1.761198347107438e-05,983.112,0.0
TenneT,TenneT,B540,B143,5.125512465373961e-06,5094.308,0.0
50Hertz,50Hertz,B305,B628,0.00019013144628099175,983.112,0.0
TransnetBW,TransnetBW,B246,B364,5.221883656509695e-06,3396.205,0.0
Amprion,Amprion,B113,B446,1.3674690082644628e-05,983.112,0.0
50Hertz,50Hertz,B110,B636,3.865191828254848e-05,3396.205,0.0
TransnetBW,TransnetBW,B114,B115,1.832383656509695e-05,3396.205,0.0
TenneT,TenneT,B675,B182,2.1754916897506927e-06,6792.41,0.0
TransnetBW,TransnetBW,B652,B510,7.920411157024794e-05,491.556,0.0
TransnetBW,TransnetBW,B118,B510,4.2161384297520664e-05,983.112,0.0
Amprion,Amprion,B670,B112,2.3511613573407203e-05,3396.205,0.0
Amprion,Amprion,B664,B451,2.6690909090909092e-05,1474.668,0.0
TenneT,Amprion,B656,B393,9.786440443213296e-06,3396.205,0.0
TransnetBW,TransnetBW,B1,B106,1.1344028925619834e-05,983.112,0.0
TenneT,TenneT,B708,B261,0.00018573278925619832,983.112,0.0
Amprion,Amprion,B123,B643,1.1904459833795014e-05,1698.103,0.0
TenneT,TenneT,B127,B283,4.871514462809918e-05,983.112,0.0
Amprion,Amprion,B296,B128,1.659710743801653e-05,491.556,0.0
TenneT,TenneT,B567,B177,2.5772107438016532e-05,983.112,0.0
TenneT,TenneT,B765,B567,2.099464876033058e-05,983.112,0.0
TenneT,TenneT,B785,B551,0.00010555553719008265,983.112,0.0
TenneT,TenneT,B177,B544,4.201570247933884e-06,983.112,0.0
TenneT,TenneT,B606,B173,0.0001264796487603306,491.556,0.0
TenneT,TenneT,B134,B430,2.9424028925619835e-05,983.112,0.0
TenneT,TenneT,B544,B324,5.956528925619834e-06,983.112,0.0
Amprion,Amprion,B398,B135,1.1671080332409972e-05,1698.103,0.0
Amprion,Amprion,B667,B136,8.488753462603878e-06,3396.205,0.0
Amprion,Amprion,B469,B138,5.3739669421487604e-06,983.112,0.0
Amprion,Amprion,B470,B138,1.5175495867768595e-05,983.112,0.0
Amprion,Amprion,B140,B743,3.680909090909091e-06,1474.668,0.0
Amprion,Amprion,B141,B142,9.850138504155124e-07,5094.308,0.0
50Hertz,50Hertz,B532,B178,1.8154120498614958e-05,3396.205,0.0
Amprion,Amprion,B787,B266,5.880502066115703e-05,491.556,0.0
TenneT,TenneT,B477,B143,1.4285886426592799e-05,3396.205,0.0
TenneT,TenneT,B547,B144,9.305545454545455e-05,983.112,0.0
TransnetBW,Amprion,B246,B480,1.6484646814404432e-05,3396.205,0.0
Amprion,Amprion,B493,B59,9.062314049586777e-06,983.112,0.0
Amprion,Amprion,B494,B411,2.482146814404432e-06,3396.205,0.0
Amprion,Amprion,B644,B146,1.2457458448753462e-05,3396.205,0.0
Amprion,Amprion,B502,B150,7.595330578512397e-06,983.112,0.0
Amprion,Amprion,B433,B557,3.712216066481994e-06,6792.41,0.0
Amprion,Amprion,B428,B153,1.1112728531855956e-05,1698.103,0.0
50Hertz,50Hertz,B233,B155,1.1901652892561983e-05,983.112,0.0
50Hertz,50Hertz,B158,B159,0.0002219493388429752,983.112,0.0
50Hertz,50Hertz,B179,B686,3.5931648199445986e-06,1698.103,0.0
TransnetBW,TransnetBW,B381,B160,2.404163223140496e-05,491.556,0.0
TenneT,TenneT,B521,B449,1.805280991735537e-05,983.112,0.0
Amprion,Amprion,B146,B644,1.2453095567867036e-05,3396.205,0.0
TransnetBW,TransnetBW,B21,B631,1.7712603305785123e-05,983.112,0.0
TenneT,TenneT,B144,B552,3.2327623966942145e-05,983.112,0.0
TransnetBW,TransnetBW,B683,B707,5.192984764542936e-05,1698.103,0.0
TenneT,TenneT,B778,B143,1.3428518005540168e-05,1698.103,0.0
TenneT,TenneT,B279,B476,2.7708337950138502e-05,3396.205,0.0
Amprion,Amprion,B274,B375,2.922695290858726e-05,3396.205,0.0
TransnetBW,TransnetBW,B169,B114,1.870775623268698e-06,1698.103,0.0
Amprion,Amprion,B585,B584,2.917873961218837e-06,3396.205,0.0
Amprion,Amprion,B236,B55,7.5e-06,983.112,0.0
Amprion,Amprion,B266,B442,1.486190082644628e-05,983.112,0.0
Amprion,Amprion,B174,B323,2.271869834710744e-05,983.112,0.0
TransnetBW,TransnetBW,B225,B679,5.329097107438017e-05,983.112,0.0
TenneT,TenneT,B177,B544,8.293243801652893e-06,491.556,0.0
50Hertz,50Hertz,B130,B750,3.2895429362880885e-06,3396.205,0.0
TenneT,TenneT,B295,B714,1.129542243767313e-05,3396.205,0.0
50Hertz,50Hertz,B178,B179,7.700837950138504e-06,3396.205,0.0
TransnetBW,TransnetBW,B520,B170,2.933193213296399e-05,3396.205,0.0
TransnetBW,TransnetBW,B457,B180,0.00015532909090909091,983.112,0.0
TransnetBW,TransnetBW,B635,B581,3.479326177285319e-05,3396.205,0.0
TransnetBW,TransnetBW,B133,B579,4.521849030470914e-06,1698.103,0.0
TenneT,TenneT,B730,B697,8.758704986149583e-06,3396.205,0.0
TenneT,TenneT,B731,B730,2.892887811634349e-06,1698.103,0.0
TenneT,TenneT,B591,B316,1.118775623268698e-05,3396.205,0.0
TenneT,TenneT,B733,B732,5.678019390581718e-06,1698.103,0.0
TenneT,TenneT,B181,B476,1.3347853185595568e-06,3396.205,0.0
TenneT,TenneT,B727,B182,2.631059556786704e-06,3396.205,0.0
Amprion,Amprion,B389,B183,1.5836191135734073e-05,3396.205,0.0
Amprion,Amprion,B184,B185,5.779200413223141e-05,983.112,0.0
50Hertz,50Hertz,B186,B233,1.778828512396694e-05,491.556,0.0
50Hertz,50Hertz,B187,B130,4.8865720221606655e-06,1698.103,0.0
TenneT,Amprion,B144,B354,4.816900826446281e-06,983.112,0.0
Amprion,Amprion,B434,B188,1.1940165289256197e-05,1966.224,0.0
TenneT,TenneT,B603,B615,4.9476246537396125e-06,3396.205,0.0
TenneT,TenneT,B475,B772,4.259030470914127e-06,3396.205,0.0
TransnetBW,TransnetBW,B381,B600,8.771838842975207e-06,983.112,0.0
TenneT,TenneT,B189,B181,1.141578947368421e-06,6792.41,0.0
Amprion,Amprion,B309,B190,2.6093559556786703e-06,1698.103,0.0
Amprion,Amprion,B109,B190,1.5741371191135734e-05,3396.205,0.0
Amprion,Amprion,B191,B427,2.657481404958678e-05,983.112,0.0
Amprion,Amprion,B129,B428,7.258150969529085e-06,3396.205,0.0
50Hertz,50Hertz,B192,B193,4.678311983471074e-05,983.112,0.0
TransnetBW,TransnetBW,B90,B120,1.8839214876033057e-05,983.112,0.0
Amprion,Amprion,B196,B627,3.0018441828254846e-05,3396.205,0.0
50Hertz,50Hertz,B161,B572,2.1168677285318562e-05,3396.205,0.0
Amprion,Amprion,B401,B199,1.4067943213296398e-05,1698.103,0.0
Amprion,Amprion,B232,B728,2.1838351800554017e-05,3396.205,0.0
Amprion,Amprion,B151,B622,1.4266714876033058e-05,491.556,0.0
Amprion,Amprion,B100,B99,1.9735734072022162e-06,1698.103,0.0
Amprion,Amprion,B196,B526,6.378157894736842e-06,3396.205,0.0
50Hertz,50Hertz,B770,B201,2.2027049861495843e-05,3396.205,0.0
TransnetBW,TransnetBW,B203,B204,2.6218421052631577e-06,1698.103,0.0
TransnetBW,TransnetBW,B203,B204,2.6161495844875345e-06,1698.103,0.0
50Hertz,50Hertz,B759,B5,3.349459833795014e-06,3396.205,0.0
50Hertz,50Hertz,B178,B607,5.450254155124654e-05,3396.205,0.0
Amprion,Amprion,B344,B205,4.530235457063712e-06,6792.41,0.0
Amprion,Amprion,B783,B207,8.146363636363637e-06,983.112,0.0
Amprion,Amprion,B784,B194,2.2507894736842107e-06,3396.205,0.0
Amprion,Amprion,B81,B494,3.814916897506925e-06,3396.205,0.0
Amprion,Amprion,B207,B542,4.8210185950413224e-05,491.556,0.0
Amprion,Amprion,B428,B196,2.304830332409972e-05,3396.205,0.0
TransnetBW,TransnetBW,B208,B431,1.0597029085872576e-05,1698.103,0.0
TransnetBW,TransnetBW,B180,B209,2.356873966942149e-05,491.556,0.0
TransnetBW,TransnetBW,B209,B700,5.686925619834711e-05,983.112,0.0
TransnetBW,TransnetBW,B364,B308,1.2233635734072022e-05,5094.308,0.0
TransnetBW,TransnetBW,B616,B210,2.2674445983379504e-06,1698.103,0.0
Amprion,Amprion,B135,B214,9.869861495844876e-06,3396.205,0.0
Amprion,Amprion,B472,B614,1.312119834710744e-05,1474.668,0.0
Amprion,Amprion,B217,B216,4.465256232686981e-06,1698.103,0.0
Amprion,Amprion,B320,B433,3.047264542936288e-06,3396.205,0.0
50Hertz,50Hertz,B651,B303,2.083836565096953e-06,3396.205,0.0
TransnetBW,TransnetBW,B203,B219,2.1296883656509695e-06,3396.205,0.0
TransnetBW,TransnetBW,B219,B220,2.5134189750692518e-05,3396.205,0.0
TransnetBW,TransnetBW,B115,B208,1.7209695290858726e-06,3396.205,0.0
TransnetBW,TransnetBW,B624,B202,4.749710743801653e-06,983.112,0.0
TransnetBW,TransnetBW,B26,B27,1.7857340720221605e-06,1698.103,0.0
TenneT,TenneT,B294,B223,2.2728448753462605e-05,3396.205,0.0
TenneT,TenneT,B733,B731,7.0013296398891955e-06,3396.205,0.0
Amprion,Amprion,B514,B255,3.0477839335180055e-06,3396.205,0.0
Amprion,Amprion,B60,B667,6.650013850415512e-06,3396.205,0.0
50Hertz,50Hertz,B671,B768,1.4355470914127423e-05,3396.205,0.0
Amprion,Amprion,B128,B423,3.3572107438016527e-06,1966.224,0.0
50Hertz,50Hertz,B636,B759,3.5496703601108034e-05,3396.205,0.0
TransnetBW,TransnetBW,B308,B370,5.3974307479224375e-06,5094.308,0.0
50Hertz,50Hertz,B437,B228,2.2303698060941828e-05,3396.205,0.0
50Hertz,50Hertz,B661,B303,2.156731301939058e-06,3396.205,0.0
50Hertz,50Hertz,B661,B574,8.776800554016621e-06,1698.103,0.0
Amprion,Amprion,B493,B145,3.441132231404959e-05,983.112,0.0
Amprion,Amprion,B467,B229,1.3964462809917355e-05,983.112,0.0
Amprion,Amprion,B557,B230,6.817612188365652e-05,1698.103,0.0
Amprion,Amprion,B302,B232,3.580976454293629e-06,3396.205,0.0
50Hertz,50Hertz,B673,B187,4.03106163434903e-05,3396.205,0.0
TenneT,TenneT,B591,B295,4.475124653739612e-06,3396.205,0.0
TenneT,TenneT,B543,B224,0.00012323320247933884,983.112,0.0
Amprion,Amprion,B237,B394,1.0347871900826446e-05,491.556,0.0
Amprion,Amprion,B239,B240,4.132407024793388e-05,491.556,0.0
Amprion,Amprion,B612,B241,1.1322119113573406e-05,1698.103,0.0
Amprion,Amprion,B152,B464,1.3792867036011082e-06,3396.205,0.0
TransnetBW,TransnetBW,B392,B417,9.731404958677686e-06,983.112,0.0
50Hertz,50Hertz,B242,B6,1.0478185595567867e-05,3396.205,0.0
TenneT,TenneT,B498,B243,0.00013526398760330577,983.112,0.0
TransnetBW,TransnetBW,B638,B621,1.7306329639889197e-05,3396.205,0.0
Amprion,Amprion,B64,B245,9.18483379501385e-07,5094.308,0.0
Amprion,Amprion,B166,B96,4.023789256198347e-05,1474.668,0.0
Amprion,Amprion,B746,B490,2.6442809917355372e-05,983.112,0.0
Amprion,Amprion,B491,B248,1.6921329639889198e-06,6792.41,0.0
...